                                  MODFLOW-2005     
      U.S. GEOLOGICAL SURVEY MODULAR FINITE-DIFFERENCE GROUND-WATER FLOW MODEL
                            VERSION 1.12.00 2/3/2017

 LIST FILE: Transpired.list
                         UNIT    2

 OPENING Transpired.dis
 FILE TYPE:DIS   UNIT   11   STATUS:OLD    
 FORMAT:FORMATTED              ACCESS:SEQUENTIAL          

 OPENING Transpired.bas
 FILE TYPE:BAS6   UNIT   13   STATUS:OLD    
 FORMAT:FORMATTED              ACCESS:SEQUENTIAL          

 OPENING Transpired.lpf
 FILE TYPE:LPF   UNIT   15   STATUS:OLD    
 FORMAT:FORMATTED              ACCESS:SEQUENTIAL          

 OPENING Transpired.oc
 FILE TYPE:OC   UNIT   14   STATUS:OLD    
 FORMAT:FORMATTED              ACCESS:SEQUENTIAL          

 OPENING Transpired.pcg
 FILE TYPE:PCG   UNIT   27   STATUS:OLD    
 FORMAT:FORMATTED              ACCESS:SEQUENTIAL          

 OPENING Transpired.wel
 FILE TYPE:WEL   UNIT   20   STATUS:OLD    
 FORMAT:FORMATTED              ACCESS:SEQUENTIAL          

 OPENING Transpired.rch
 FILE TYPE:RCH   UNIT   19   STATUS:OLD    
 FORMAT:FORMATTED              ACCESS:SEQUENTIAL          

 OPENING Transpired.evt
 FILE TYPE:EVT   UNIT   22   STATUS:OLD    
 FORMAT:FORMATTED              ACCESS:SEQUENTIAL          

 OPENING Transpired.cbc
 FILE TYPE:DATA(BINARY)   UNIT   53   STATUS:REPLACE
 FORMAT:UNFORMATTED            ACCESS:STREAM              

 OPENING Transpired.hds
 FILE TYPE:DATA(BINARY)   UNIT   51   STATUS:REPLACE
 FORMAT:UNFORMATTED            ACCESS:STREAM              

 BAS -- BASIC PACKAGE, VERSION 7, 5/2/2005 INPUT READ FROM UNIT   13

 MODFLOW was compiled using mixed precision
 Precision of REAL variables:           6
 Precision of DOUBLE PRECISION variables:          15

 DISCRETIZATION INPUT DATA READ FROM UNIT   11
 # DIS package for  MODFLOW-2005, generated by Flopy.
    1 LAYERS        25 ROWS        25 COLUMNS
    1 STRESS PERIOD(S) IN SIMULATION
 MODEL TIME UNIT IS DAYS
 MODEL LENGTH UNIT IS METERS
  Confining bed flag for each layer:
   0

                     DELR =   100.000    

                     DELC =   100.000    

 TOP ELEVATION OF LAYER 1 =   600.000    

   MODEL LAYER BOTTOM EL. =   0.00000     FOR LAYER   1


 STRESS PERIOD     LENGTH       TIME STEPS     MULTIPLIER FOR DELT    SS FLAG
 ----------------------------------------------------------------------------
        1         1.000000          1                    1.000         SS

 STEADY-STATE SIMULATION




 # BAS6 package for  MODFLOW-2005, generated by Flopy.                           
 THE FREE FORMAT OPTION HAS BEEN SELECTED



                     BOUNDARY ARRAY FOR LAYER   1
 READING ON UNIT   13 WITH FORMAT: (25I10)             

 AQUIFER HEAD WILL BE SET TO  -999.99     AT ALL NO-FLOW NODES (IBOUND=0).



                       INITIAL HEAD FOR LAYER   1
 READING ON UNIT   13 WITH FORMAT: (25E15.6)           
 # OC package for  MODFLOW-2005, generated by Flopy.

 OUTPUT CONTROL IS SPECIFIED ONLY AT TIME STEPS FOR WHICH OUTPUT IS DESIRED
 COMPACT CELL-BY-CELL BUDGET FILES WILL BE WRITTEN
 AUXILIARY DATA WILL BE SAVED IN CELL-BY-CELL BUDGET FILES
 HEAD PRINT FORMAT CODE IS   0    DRAWDOWN PRINT FORMAT CODE IS   0
 HEADS WILL BE SAVED ON UNIT   51    DRAWDOWNS WILL BE SAVED ON UNIT    0

 LPF -- LAYER-PROPERTY FLOW PACKAGE, VERSION 7, 5/2/2005
         INPUT READ FROM UNIT   15
 # LPF package for  MODFLOW-2005, generated by Flopy.
 CELL-BY-CELL FLOWS WILL BE SAVED ON UNIT   53
 HEAD AT CELLS THAT CONVERT TO DRY= -1.00000E+30
 No named parameters
 STORAGECOEFFICIENT OPTION:
 Read storage coefficient rather than specific storage

   LAYER FLAGS:
 LAYER       LAYTYP        LAYAVG         CHANI        LAYVKA        LAYWET
 ---------------------------------------------------------------------------
    1             1             0     1.000E+00             0             0

   INTERPRETATION OF LAYER FLAGS:
                        INTERBLOCK     HORIZONTAL    DATA IN
         LAYER TYPE   TRANSMISSIVITY   ANISOTROPY   ARRAY VKA   WETTABILITY
 LAYER      (LAYTYP)      (LAYAVG)       (CHANI)      (LAYVKA)      (LAYWET)
 ---------------------------------------------------------------------------
    1   CONVERTIBLE      HARMONIC     1.000E+00    VERTICAL K  NON-WETTABLE

 WETTING CAPABILITY IS NOT ACTIVE IN ANY LAYER



              HYD. COND. ALONG ROWS FOR LAYER   1
 READING ON UNIT   15 WITH FORMAT: (25E15.6)           

      VERTICAL HYD. COND. =   1.00000     FOR LAYER   1

 WEL -- WELL PACKAGE, VERSION 7, 5/2/2005 INPUT READ FROM UNIT   20
 # WEL package for  MODFLOW-2005, generated by Flopy.
 No named parameters
 MAXIMUM OF      3 ACTIVE WELLS AT ONE TIME


     0 Well parameters

 EVT -- EVAPOTRANSPIRATION PACKAGE, VERSION 7, 5/2/2005
         INPUT READ FROM UNIT   22
 # EVT package for  MODFLOW-2005, generated by Flopy.
 No named parameters
 OPTION 3 -- EVAPOTRANSPIRATION FROM HIGHEST ACTIVE NODE IN EACH VERTICAL COLUMN
 CELL-BY-CELL FLOWS WILL BE SAVED ON UNIT   53


     0 Evapotranspiration parameters

 RCH -- RECHARGE PACKAGE, VERSION 7, 5/2/2005 INPUT READ FROM UNIT   19
 # RCH package for  MODFLOW-2005, generated by Flopy.
 No named parameters
 OPTION 3 -- RECHARGE TO HIGHEST ACTIVE NODE IN EACH VERTICAL COLUMN
 CELL-BY-CELL FLOWS WILL BE SAVED ON UNIT   53


     0 Recharge parameters

 PCG -- CONJUGATE-GRADIENT SOLUTION PACKAGE, VERSION 7, 5/2/2005
 # PCG package for  MODFLOW-2005, generated by Flopy.
 MAXIMUM OF     50 CALLS OF SOLUTION ROUTINE
 MAXIMUM OF     30 INTERNAL ITERATIONS PER CALL TO SOLUTION ROUTINE
 MATRIX PRECONDITIONING TYPE :    1



                                    SOLUTION BY THE CONJUGATE-GRADIENT METHOD
                                   -------------------------------------------
                    MAXIMUM NUMBER OF CALLS TO PCG ROUTINE =       50
                        MAXIMUM ITERATIONS PER CALL TO PCG =       30
                               MATRIX PRECONDITIONING TYPE =        1
        RELAXATION FACTOR (ONLY USED WITH PRECOND. TYPE 1) =    0.10000E+01
 PARAMETER OF POLYNOMIAL PRECOND. = 2 (2) OR IS CALCULATED :        0
                         HEAD CHANGE CRITERION FOR CLOSURE =    0.10000E-04
                     RESIDUAL CHANGE CRITERION FOR CLOSURE =    0.10000E-04
            PCG HEAD AND RESIDUAL CHANGE PRINTOUT INTERVAL =      999
     PRINTING FROM SOLVER IS LIMITED(1) OR SUPPRESSED (>1) =        3
                            STEADY-STATE DAMPING PARAMETER =    0.10000E+01
                               TRANSIENT DAMPING PARAMETER =    0.10000E+01
1
                            STRESS PERIOD NO.    1, LENGTH =   1.000000    
                            -----------------------------------------------

                              NUMBER OF TIME STEPS =     1

                               MULTIPLIER FOR DELT =     1.000

                            INITIAL TIME STEP SIZE =   1.000000    

 WELL NO.  LAYER   ROW   COL   STRESS RATE         
 --------------------------------------------------
      1      1     12      5      -350.0    
      2      1     13      8      -5250.    
      3      1     17      8      -5250.    

      3 WELLS

               ET SURFACE =   600.000    



            EVAPOTRANSPIRATION RATE
 READING ON UNIT   22 WITH FORMAT: (25E15.6)           

         EXTINCTION DEPTH =   0.00000    



                           RECHARGE
 READING ON UNIT   19 WITH FORMAT: (25E15.6)           

 SOLVING FOR HEAD 

 CELL CONVERSIONS FOR ITER.=  2  LAYER=  1  STEP=  1  PERIOD=   1   (ROW,COL)
    DRY( 13,  8)   

 OUTPUT CONTROL FOR STRESS PERIOD    1   TIME STEP    1
    PRINT HEAD FOR ALL LAYERS
    PRINT BUDGET
    SAVE HEAD FOR ALL LAYERS
    SAVE BUDGET
 UBDSV2 SAVING "   CONSTANT HEAD" ON UNIT  53 AT TIME STEP  1, STRESS PERIOD   1
 UBDSV1 SAVING "FLOW RIGHT FACE " ON UNIT  53 AT TIME STEP  1, STRESS PERIOD   1
 UBDSV1 SAVING "FLOW FRONT FACE " ON UNIT  53 AT TIME STEP  1, STRESS PERIOD   1
 UBDSV3 SAVING "              ET" ON UNIT  53 AT TIME STEP  1, STRESS PERIOD   1
 UBDSV3 SAVING "        RECHARGE" ON UNIT  53 AT TIME STEP  1, STRESS PERIOD   1
1
              HEAD IN LAYER   1 AT END OF TIME STEP   1 IN STRESS PERIOD    1
  ---------------------------------------------------------------------------

            1           2           3           4           5           6           7           8           9          10
           11          12          13          14          15          16          17          18          19          20
           21          22          23          24          25
 ........................................................................................................................
   1    595.0       593.5       592.0       590.6       589.1       587.6       586.1       584.6       583.1       581.6    
        580.1       578.7       576.8       574.6       572.4       570.2       567.9       565.7       563.5       561.3    
        559.0       556.8       554.5       552.3       550.0    
   2    595.0       593.5       592.0       590.6       589.1       587.6       586.1       584.6       583.1       581.6    
        580.1       578.7       576.8       574.6       572.4       570.2       567.9       565.7       563.5       561.3    
        559.0       556.8       554.5       552.3       550.0    
   3    595.0       593.5       592.0       590.6       589.1       587.6       586.1       584.6       583.1       581.6    
        580.1       578.6       576.8       574.6       572.4       570.1       567.9       565.7       563.5       561.3    
        559.0       556.8       554.5       552.3       550.0    
   4    595.0       593.5       592.0       590.5       589.1       587.6       586.1       584.6       583.1       581.6    
        580.1       578.6       576.8       574.6       572.3       570.1       567.9       565.7       563.5       561.2    
        559.0       556.8       554.5       552.3       550.0    
   5    595.0       593.5       592.0       590.5       589.1       587.6       586.1       584.5       583.0       581.6    
        580.1       578.6       576.7       574.5       572.3       570.1       567.9       565.7       563.5       561.2    
        559.0       556.8       554.5       552.3       550.0    
   6    595.0       593.5       592.0       590.5       589.0       587.5       586.0       584.5       583.0       581.5    
        580.0       578.5       576.7       574.5       572.3       570.1       567.9       565.7       563.4       561.2    
        559.0       556.8       554.5       552.3       550.0    
   7    595.0       593.5       592.0       590.5       589.0       587.5       586.0       584.5       583.0       581.5    
        580.0       578.5       576.6       574.4       572.2       570.0       567.8       565.6       563.4       561.2    
        559.0       556.7       554.5       552.3       550.0    
   8    595.0       593.5       592.0       590.5       589.0       587.5       586.0       584.5       582.9       581.4    
        579.9       578.4       576.6       574.4       572.2       570.0       567.8       565.6       563.4       561.2    
        559.0       556.7       554.5       552.3       550.0    
   9    595.0       593.5       592.0       590.6       589.1       587.5       586.0       584.4       582.8       581.3    
        579.8       578.3       576.5       574.3       572.1       569.9       567.8       565.6       563.4       561.2    
        558.9       556.7       554.5       552.2       550.0    
  10    595.0       593.5       592.1       590.6       589.1       587.6       586.0       584.4       582.7       581.2    
        579.7       578.2       576.4       574.2       572.1       569.9       567.7       565.5       563.3       561.1    
        558.9       556.7       554.5       552.2       550.0    
  11    595.0       593.5       592.1       590.6       589.1       587.7       586.1       584.3       582.5       580.9    
        579.5       578.0       576.3       574.1       572.0       569.8       567.7       565.5       563.3       561.1    
        558.9       556.7       554.5       552.2       550.0    
  12    595.0       593.5       592.1       590.6       589.1       587.8       586.4       584.3       582.1       580.6    
        579.3       577.9       576.1       574.0       571.9       569.8       567.6       565.5       563.3       561.1    
        558.9       556.7       554.5       552.2       550.0    
  13    595.0       593.5       592.1       590.7       589.3       588.0       587.0     -1.0000E+30   581.4       580.4    
        579.2       577.8       576.1       574.0       571.9       569.7       567.6       565.4       563.3       561.1    
        558.9       556.7       554.5       552.2       550.0    
  14    595.0       593.5       592.1       590.6       589.2       587.7       586.2       584.2       582.2       580.7    
        579.3       577.8       576.1       574.0       571.9       569.7       567.6       565.4       563.3       561.1    
        558.9       556.7       554.5       552.2       550.0    
  15    595.0       593.5       592.0       590.5       589.0       587.5       585.9       584.1       582.4       580.9    
        579.4       577.9       576.1       574.0       571.9       569.8       567.6       565.4       563.3       561.1    
        558.9       556.7       554.5       552.2       550.0    
  16    595.0       593.5       592.0       590.5       589.0       587.4       585.8       584.1       582.5       581.0    
        579.5       578.0       576.2       574.0       571.9       569.8       567.6       565.4       563.3       561.1    
        558.9       556.7       554.5       552.2       550.0    
  17    595.0       593.5       592.0       590.5       588.9       587.3       585.7       583.9       582.5       581.0    
        579.5       578.0       576.2       574.1       571.9       569.8       567.6       565.5       563.3       561.1    
        558.9       556.7       554.5       552.2       550.0    
  18    595.0       593.5       592.0       590.4       588.9       587.3       585.7       584.1       582.6       581.1    
        579.6       578.1       576.3       574.1       572.0       569.8       567.6       565.5       563.3       561.1    
        558.9       556.7       554.5       552.2       550.0    
  19    595.0       593.5       592.0       590.4       588.9       587.3       585.8       584.2       582.7       581.1    
        579.6       578.1       576.3       574.1       572.0       569.8       567.7       565.5       563.3       561.1    
        558.9       556.7       554.5       552.2       550.0    
  20    595.0       593.5       592.0       590.4       588.9       587.3       585.8       584.2       582.7       581.2    
        579.7       578.2       576.3       574.2       572.0       569.8       567.7       565.5       563.3       561.1    
        558.9       556.7       554.5       552.2       550.0    
  21    595.0       593.5       592.0       590.4       588.9       587.4       585.8       584.3       582.7       581.2    
        579.7       578.2       576.4       574.2       572.0       569.9       567.7       565.5       563.3       561.1    
        558.9       556.7       554.5       552.2       550.0    
  22    595.0       593.5       592.0       590.4       588.9       587.4       585.8       584.3       582.8       581.2    
        579.7       578.2       576.4       574.2       572.0       569.9       567.7       565.5       563.3       561.1    
        558.9       556.7       554.5       552.2       550.0    
  23    595.0       593.5       592.0       590.4       588.9       587.4       585.8       584.3       582.8       581.3    
        579.7       578.2       576.4       574.2       572.1       569.9       567.7       565.5       563.3       561.1    
        558.9       556.7       554.5       552.2       550.0    
  24    595.0       593.5       592.0       590.4       588.9       587.4       585.9       584.3       582.8       581.3    
        579.8       578.2       576.4       574.2       572.1       569.9       567.7       565.5       563.3       561.1    
        558.9       556.7       554.5       552.2       550.0    
  25    595.0       593.5       592.0       590.4       588.9       587.4       585.9       584.3       582.8       581.3    
        579.8       578.2       576.4       574.2       572.1       569.9       567.7       565.5       563.3       561.1    
        558.9       556.7       554.5       552.2       550.0    

 HEAD WILL BE SAVED ON UNIT   51 AT END OF TIME STEP    1, STRESS PERIOD    1
1
  VOLUMETRIC BUDGET FOR ENTIRE MODEL AT END OF TIME STEP    1, STRESS PERIOD   1
  ------------------------------------------------------------------------------

     CUMULATIVE VOLUMES      L**3       RATES FOR THIS TIME STEP      L**3/T
     ------------------                 ------------------------

           IN:                                      IN:
           ---                                      ---
             STORAGE =           0.0000               STORAGE =           0.0000
       CONSTANT HEAD =      155183.3594         CONSTANT HEAD =      155183.3594
               WELLS =           0.0000                 WELLS =           0.0000
                  ET =           0.0000                    ET =           0.0000
            RECHARGE =           0.0000              RECHARGE =           0.0000

            TOTAL IN =      155183.3594              TOTAL IN =      155183.3594

          OUT:                                     OUT:
          ----                                     ----
             STORAGE =           0.0000               STORAGE =           0.0000
       CONSTANT HEAD =      149583.3594         CONSTANT HEAD =      149583.3594
               WELLS =        5600.0000                 WELLS =        5600.0000
                  ET =           0.0000                    ET =           0.0000
            RECHARGE =           0.0000              RECHARGE =           0.0000

           TOTAL OUT =      155183.3594             TOTAL OUT =      155183.3594

            IN - OUT =           0.0000              IN - OUT =           0.0000

 PERCENT DISCREPANCY =           0.00     PERCENT DISCREPANCY =           0.00






         TIME SUMMARY AT END OF TIME STEP    1 IN STRESS PERIOD    1
                    SECONDS     MINUTES      HOURS       DAYS        YEARS
                    -----------------------------------------------------------
   TIME STEP LENGTH  86400.      1440.0      24.000      1.0000     2.73785E-03
 STRESS PERIOD TIME  86400.      1440.0      24.000      1.0000     2.73785E-03
         TOTAL TIME  86400.      1440.0      24.000      1.0000     2.73785E-03
1

 Run end date and time (yyyy/mm/dd hh:mm:ss): 2022/03/17  0:11:14
 Elapsed run time:  0.047 Seconds

