                                  MODFLOW-2005     
      U.S. GEOLOGICAL SURVEY MODULAR FINITE-DIFFERENCE GROUND-WATER FLOW MODEL
                            VERSION 1.12.00 2/3/2017

 LIST FILE: Transpired.list
                         UNIT    2

 OPENING Transpired.dis
 FILE TYPE:DIS   UNIT   11   STATUS:OLD    
 FORMAT:FORMATTED              ACCESS:SEQUENTIAL          

 OPENING Transpired.bas
 FILE TYPE:BAS6   UNIT   13   STATUS:OLD    
 FORMAT:FORMATTED              ACCESS:SEQUENTIAL          

 OPENING Transpired.lpf
 FILE TYPE:LPF   UNIT   15   STATUS:OLD    
 FORMAT:FORMATTED              ACCESS:SEQUENTIAL          

 OPENING Transpired.oc
 FILE TYPE:OC   UNIT   14   STATUS:OLD    
 FORMAT:FORMATTED              ACCESS:SEQUENTIAL          

 OPENING Transpired.pcg
 FILE TYPE:PCG   UNIT   27   STATUS:OLD    
 FORMAT:FORMATTED              ACCESS:SEQUENTIAL          

 OPENING Transpired.wel
 FILE TYPE:WEL   UNIT   20   STATUS:OLD    
 FORMAT:FORMATTED              ACCESS:SEQUENTIAL          

 OPENING Transpired.rch
 FILE TYPE:RCH   UNIT   19   STATUS:OLD    
 FORMAT:FORMATTED              ACCESS:SEQUENTIAL          

 OPENING Transpired.evt
 FILE TYPE:EVT   UNIT   22   STATUS:OLD    
 FORMAT:FORMATTED              ACCESS:SEQUENTIAL          

 OPENING Transpired.cbc
 FILE TYPE:DATA(BINARY)   UNIT   53   STATUS:REPLACE
 FORMAT:UNFORMATTED            ACCESS:STREAM              

 OPENING Transpired.hds
 FILE TYPE:DATA(BINARY)   UNIT   51   STATUS:REPLACE
 FORMAT:UNFORMATTED            ACCESS:STREAM              

 BAS -- BASIC PACKAGE, VERSION 7, 5/2/2005 INPUT READ FROM UNIT   13

 MODFLOW was compiled using mixed precision
 Precision of REAL variables:           6
 Precision of DOUBLE PRECISION variables:          15

 DISCRETIZATION INPUT DATA READ FROM UNIT   11
 # DIS package for  MODFLOW-2005, generated by Flopy.
    1 LAYERS        25 ROWS        25 COLUMNS
    1 STRESS PERIOD(S) IN SIMULATION
 MODEL TIME UNIT IS DAYS
 MODEL LENGTH UNIT IS METERS
  Confining bed flag for each layer:
   0

                     DELR =   100.000    

                     DELC =   100.000    

 TOP ELEVATION OF LAYER 1 =   575.000    

   MODEL LAYER BOTTOM EL. =   0.00000     FOR LAYER   1


 STRESS PERIOD     LENGTH       TIME STEPS     MULTIPLIER FOR DELT    SS FLAG
 ----------------------------------------------------------------------------
        1         1.000000          1                    1.000         SS

 STEADY-STATE SIMULATION




 # BAS6 package for  MODFLOW-2005, generated by Flopy.                           
 THE FREE FORMAT OPTION HAS BEEN SELECTED



                     BOUNDARY ARRAY FOR LAYER   1
 READING ON UNIT   13 WITH FORMAT: (25I10)             

 AQUIFER HEAD WILL BE SET TO  -999.99     AT ALL NO-FLOW NODES (IBOUND=0).



                       INITIAL HEAD FOR LAYER   1
 READING ON UNIT   13 WITH FORMAT: (25E15.6)           
 # OC package for  MODFLOW-2005, generated by Flopy.

 OUTPUT CONTROL IS SPECIFIED ONLY AT TIME STEPS FOR WHICH OUTPUT IS DESIRED
 COMPACT CELL-BY-CELL BUDGET FILES WILL BE WRITTEN
 AUXILIARY DATA WILL BE SAVED IN CELL-BY-CELL BUDGET FILES
 HEAD PRINT FORMAT CODE IS   0    DRAWDOWN PRINT FORMAT CODE IS   0
 HEADS WILL BE SAVED ON UNIT   51    DRAWDOWNS WILL BE SAVED ON UNIT    0

 LPF -- LAYER-PROPERTY FLOW PACKAGE, VERSION 7, 5/2/2005
         INPUT READ FROM UNIT   15
 # LPF package for  MODFLOW-2005, generated by Flopy.
 CELL-BY-CELL FLOWS WILL BE SAVED ON UNIT   53
 HEAD AT CELLS THAT CONVERT TO DRY= -1.00000E+30
 No named parameters
 STORAGECOEFFICIENT OPTION:
 Read storage coefficient rather than specific storage

   LAYER FLAGS:
 LAYER       LAYTYP        LAYAVG         CHANI        LAYVKA        LAYWET
 ---------------------------------------------------------------------------
    1             1             0     1.000E+00             0             0

   INTERPRETATION OF LAYER FLAGS:
                        INTERBLOCK     HORIZONTAL    DATA IN
         LAYER TYPE   TRANSMISSIVITY   ANISOTROPY   ARRAY VKA   WETTABILITY
 LAYER      (LAYTYP)      (LAYAVG)       (CHANI)      (LAYVKA)      (LAYWET)
 ---------------------------------------------------------------------------
    1   CONVERTIBLE      HARMONIC     1.000E+00    VERTICAL K  NON-WETTABLE

 WETTING CAPABILITY IS NOT ACTIVE IN ANY LAYER



              HYD. COND. ALONG ROWS FOR LAYER   1
 READING ON UNIT   15 WITH FORMAT: (25E15.6)           

      VERTICAL HYD. COND. =   1.00000     FOR LAYER   1

 WEL -- WELL PACKAGE, VERSION 7, 5/2/2005 INPUT READ FROM UNIT   20
 # WEL package for  MODFLOW-2005, generated by Flopy.
 No named parameters
 MAXIMUM OF      3 ACTIVE WELLS AT ONE TIME


     0 Well parameters

 EVT -- EVAPOTRANSPIRATION PACKAGE, VERSION 7, 5/2/2005
         INPUT READ FROM UNIT   22
 # EVT package for  MODFLOW-2005, generated by Flopy.
 No named parameters
 OPTION 3 -- EVAPOTRANSPIRATION FROM HIGHEST ACTIVE NODE IN EACH VERTICAL COLUMN
 CELL-BY-CELL FLOWS WILL BE SAVED ON UNIT   53


     0 Evapotranspiration parameters

 RCH -- RECHARGE PACKAGE, VERSION 7, 5/2/2005 INPUT READ FROM UNIT   19
 # RCH package for  MODFLOW-2005, generated by Flopy.
 No named parameters
 OPTION 3 -- RECHARGE TO HIGHEST ACTIVE NODE IN EACH VERTICAL COLUMN
 CELL-BY-CELL FLOWS WILL BE SAVED ON UNIT   53


     0 Recharge parameters

 PCG -- CONJUGATE-GRADIENT SOLUTION PACKAGE, VERSION 7, 5/2/2005
 # PCG package for  MODFLOW-2005, generated by Flopy.
 MAXIMUM OF     50 CALLS OF SOLUTION ROUTINE
 MAXIMUM OF     30 INTERNAL ITERATIONS PER CALL TO SOLUTION ROUTINE
 MATRIX PRECONDITIONING TYPE :    1



                                    SOLUTION BY THE CONJUGATE-GRADIENT METHOD
                                   -------------------------------------------
                    MAXIMUM NUMBER OF CALLS TO PCG ROUTINE =       50
                        MAXIMUM ITERATIONS PER CALL TO PCG =       30
                               MATRIX PRECONDITIONING TYPE =        1
        RELAXATION FACTOR (ONLY USED WITH PRECOND. TYPE 1) =    0.10000E+01
 PARAMETER OF POLYNOMIAL PRECOND. = 2 (2) OR IS CALCULATED :        0
                         HEAD CHANGE CRITERION FOR CLOSURE =    0.10000E-04
                     RESIDUAL CHANGE CRITERION FOR CLOSURE =    0.10000E-04
            PCG HEAD AND RESIDUAL CHANGE PRINTOUT INTERVAL =      999
     PRINTING FROM SOLVER IS LIMITED(1) OR SUPPRESSED (>1) =        3
                            STEADY-STATE DAMPING PARAMETER =    0.10000E+01
                               TRANSIENT DAMPING PARAMETER =    0.10000E+01
1
                            STRESS PERIOD NO.    1, LENGTH =   1.000000    
                            -----------------------------------------------

                              NUMBER OF TIME STEPS =     1

                               MULTIPLIER FOR DELT =     1.000

                            INITIAL TIME STEP SIZE =   1.000000    

 WELL NO.  LAYER   ROW   COL   STRESS RATE         
 --------------------------------------------------
      1      1     12      5      -350.0    
      2      1     13      8      -5250.    
      3      1     17      8      -5250.    

      3 WELLS

               ET SURFACE =   575.000    



            EVAPOTRANSPIRATION RATE
 READING ON UNIT   22 WITH FORMAT: (25E15.6)           

         EXTINCTION DEPTH =   20.0000    



                           RECHARGE
 READING ON UNIT   19 WITH FORMAT: (25E15.6)           

 SOLVING FOR HEAD 

 OUTPUT CONTROL FOR STRESS PERIOD    1   TIME STEP    1
    PRINT HEAD FOR ALL LAYERS
    PRINT BUDGET
    SAVE HEAD FOR ALL LAYERS
    SAVE BUDGET
 UBDSV2 SAVING "   CONSTANT HEAD" ON UNIT  53 AT TIME STEP  1, STRESS PERIOD   1
 UBDSV1 SAVING "FLOW RIGHT FACE " ON UNIT  53 AT TIME STEP  1, STRESS PERIOD   1
 UBDSV1 SAVING "FLOW FRONT FACE " ON UNIT  53 AT TIME STEP  1, STRESS PERIOD   1
 UBDSV3 SAVING "              ET" ON UNIT  53 AT TIME STEP  1, STRESS PERIOD   1
 UBDSV3 SAVING "        RECHARGE" ON UNIT  53 AT TIME STEP  1, STRESS PERIOD   1
1
              HEAD IN LAYER   1 AT END OF TIME STEP   1 IN STRESS PERIOD    1
  ---------------------------------------------------------------------------

            1           2           3           4           5           6           7           8           9          10
           11          12          13          14          15          16          17          18          19          20
           21          22          23          24          25
 ........................................................................................................................
   1    570.0       560.3       556.8       555.4       554.4       553.4       552.4       551.4       550.4       549.4    
        548.3       547.2       545.9       544.2       542.5       540.9       539.1       537.4       535.7       533.9    
        532.2       530.4       528.6       526.8       525.0    
   2    570.0       560.3       556.8       555.4       554.4       553.4       552.4       551.4       550.4       549.4    
        548.3       547.3       545.9       544.2       542.6       540.9       539.2       537.4       535.7       533.9    
        532.2       530.4       528.6       526.8       525.0    
   3    570.0       560.3       556.8       555.4       554.4       553.4       552.5       551.5       550.4       549.4    
        548.4       547.3       545.9       544.3       542.6       540.9       539.2       537.4       535.7       533.9    
        532.2       530.4       528.6       526.8       525.0    
   4    570.0       560.3       556.8       555.4       554.4       553.5       552.5       551.5       550.5       549.5    
        548.4       547.3       546.0       544.3       542.6       540.9       539.2       537.5       535.7       534.0    
        532.2       530.4       528.6       526.8       525.0    
   5    570.0       560.3       556.8       555.4       554.5       553.5       552.6       551.6       550.6       549.5    
        548.5       547.4       546.0       544.4       542.7       541.0       539.2       537.5       535.8       534.0    
        532.2       530.4       528.6       526.8       525.0    
   6    570.0       560.3       556.8       555.4       554.5       553.6       552.6       551.7       550.7       549.6    
        548.6       547.5       546.1       544.4       542.7       541.0       539.3       537.6       535.8       534.0    
        532.2       530.4       528.6       526.8       525.0    
   7    570.0       560.3       556.8       555.4       554.6       553.7       552.7       551.8       550.8       549.7    
        548.7       547.6       546.2       544.5       542.8       541.1       539.4       537.6       535.8       534.1    
        532.3       530.5       528.6       526.8       525.0    
   8    570.0       560.3       556.8       555.5       554.7       553.8       552.9       551.9       550.9       549.9    
        548.8       547.7       546.3       544.6       542.9       541.2       539.4       537.7       535.9       534.1    
        532.3       530.5       528.7       526.8       525.0    
   9    570.0       560.3       556.9       555.5       554.8       554.0       553.1       552.1       551.1       550.0    
        549.0       547.9       546.5       544.8       543.0       541.3       539.5       537.7       535.9       534.1    
        532.3       530.5       528.7       526.8       525.0    
  10    570.0       560.4       557.0       555.7       555.0       554.2       553.3       552.3       551.3       550.2    
        549.1       548.0       546.6       544.9       543.1       541.4       539.6       537.8       536.0       534.2    
        532.4       530.5       528.7       526.9       525.0    
  11    570.0       560.8       557.5       556.1       555.3       554.6       553.6       552.6       551.5       550.4    
        549.3       548.2       546.8       545.0       543.3       541.5       539.7       537.9       536.1       534.3    
        532.4       530.6       528.7       526.9       525.0    
  12    570.0       562.1       558.8       557.2       556.0       555.1       554.0       552.8       551.8       550.7    
        549.6       548.4       547.0       545.2       543.4       541.6       539.8       538.0       536.2       534.3    
        532.5       530.6       528.7       526.9       525.0    
  13    570.0       564.8       561.3       558.9       557.1       555.7       554.3       552.9       551.9       550.8    
        549.7       548.6       547.1       545.3       543.5       541.7       539.9       538.0       536.2       534.3    
        532.5       530.6       528.8       526.9       525.0    
  14    570.0       565.1       561.6       559.1       557.3       555.8       554.5       553.2       552.0       550.9    
        549.7       548.6       547.1       545.3       543.5       541.7       539.9       538.0       536.2       534.4    
        532.5       530.6       528.8       526.9       525.0    
  15    570.0       565.2       561.7       559.2       557.4       555.9       554.6       553.3       552.1       550.9    
        549.8       548.6       547.2       545.4       543.5       541.7       539.9       538.1       536.2       534.4    
        532.5       530.6       528.8       526.9       525.0    
  16    570.0       565.2       561.8       559.3       557.5       556.0       554.7       553.3       552.2       551.0    
        549.8       548.7       547.2       545.4       543.6       541.7       539.9       538.1       536.2       534.4    
        532.5       530.6       528.8       526.9       525.0    
  17    570.0       565.2       561.8       559.4       557.5       556.0       554.7       553.2       552.2       551.1    
        549.9       548.7       547.2       545.4       543.6       541.8       539.9       538.1       536.2       534.4    
        532.5       530.6       528.8       526.9       525.0    
  18    570.0       565.2       561.9       559.4       557.6       556.1       554.8       553.5       552.3       551.1    
        550.0       548.8       547.3       545.5       543.6       541.8       540.0       538.1       536.3       534.4    
        532.5       530.7       528.8       526.9       525.0    
  19    570.0       565.3       561.9       559.5       557.6       556.2       554.9       553.6       552.4       551.2    
        550.0       548.8       547.3       545.5       543.7       541.8       540.0       538.1       536.3       534.4    
        532.5       530.7       528.8       526.9       525.0    
  20    570.0       565.3       561.9       559.5       557.7       556.2       555.0       553.7       552.5       551.3    
        550.1       548.9       547.4       545.5       543.7       541.8       540.0       538.1       536.3       534.4    
        532.5       530.7       528.8       526.9       525.0    
  21    570.0       565.3       561.9       559.5       557.7       556.3       555.0       553.8       552.5       551.3    
        550.1       548.9       547.4       545.6       543.7       541.9       540.0       538.1       536.3       534.4    
        532.5       530.7       528.8       526.9       525.0    
  22    570.0       565.3       561.9       559.5       557.7       556.3       555.0       553.8       552.6       551.4    
        550.1       548.9       547.4       545.6       543.7       541.9       540.0       538.2       536.3       534.4    
        532.6       530.7       528.8       526.9       525.0    
  23    570.0       565.3       561.9       559.5       557.7       556.3       555.1       553.8       552.6       551.4    
        550.2       549.0       547.4       545.6       543.7       541.9       540.0       538.2       536.3       534.4    
        532.6       530.7       528.8       526.9       525.0    
  24    570.0       565.3       561.9       559.5       557.7       556.3       555.1       553.8       552.6       551.4    
        550.2       549.0       547.5       545.6       543.7       541.9       540.0       538.2       536.3       534.4    
        532.6       530.7       528.8       526.9       525.0    
  25    570.0       565.3       561.9       559.5       557.7       556.3       555.1       553.8       552.6       551.4    
        550.2       549.0       547.5       545.6       543.8       541.9       540.0       538.2       536.3       534.4    
        532.6       530.7       528.8       526.9       525.0    

 HEAD WILL BE SAVED ON UNIT   51 AT END OF TIME STEP    1, STRESS PERIOD    1
1
  VOLUMETRIC BUDGET FOR ENTIRE MODEL AT END OF TIME STEP    1, STRESS PERIOD   1
  ------------------------------------------------------------------------------

     CUMULATIVE VOLUMES      L**3       RATES FOR THIS TIME STEP      L**3/T
     ------------------                 ------------------------

           IN:                                      IN:
           ---                                      ---
             STORAGE =           0.0000               STORAGE =           0.0000
       CONSTANT HEAD =      556623.8125         CONSTANT HEAD =      556623.8125
               WELLS =           0.0000                 WELLS =           0.0000
                  ET =           0.0000                    ET =           0.0000
            RECHARGE =           0.0000              RECHARGE =           0.0000

            TOTAL IN =      556623.8125              TOTAL IN =      556623.8125

          OUT:                                     OUT:
          ----                                     ----
             STORAGE =           0.0000               STORAGE =           0.0000
       CONSTANT HEAD =      120228.3594         CONSTANT HEAD =      120228.3594
               WELLS =       10850.0000                 WELLS =       10850.0000
                  ET =      425545.4375                    ET =      425545.4375
            RECHARGE =           0.0000              RECHARGE =           0.0000

           TOTAL OUT =      556623.8125             TOTAL OUT =      556623.8125

            IN - OUT =           0.0000              IN - OUT =           0.0000

 PERCENT DISCREPANCY =           0.00     PERCENT DISCREPANCY =           0.00






         TIME SUMMARY AT END OF TIME STEP    1 IN STRESS PERIOD    1
                    SECONDS     MINUTES      HOURS       DAYS        YEARS
                    -----------------------------------------------------------
   TIME STEP LENGTH  86400.      1440.0      24.000      1.0000     2.73785E-03
 STRESS PERIOD TIME  86400.      1440.0      24.000      1.0000     2.73785E-03
         TOTAL TIME  86400.      1440.0      24.000      1.0000     2.73785E-03
1

 Run end date and time (yyyy/mm/dd hh:mm:ss): 2022/03/17  1:42:58
 Elapsed run time:  0.030 Seconds

